! File generated by DesignBuilder - 7.3.1.003 10/05/2025 - 11:57:10
! Source file: C:\DB\GREENCHEECK\6.5.25\text 6.5.25.dsb

! Geometry convention template : ASHRAE 90.1
! Zone geometry and surface areas : 2-Outer
! Zone volume calculation method : 2-Outer
! Zone floor area calculation method : 2-Outer
! Window to wall ratio method : 2-Outer

Version, 9.4.0.002;                               !- Version Identifier

RunPeriod,                                        !- Annual simulation
   1 (01-01:31-12),                               !- Location
   1,1, 2002,                                     !- Start Month , Day
   12,31, 2002,                                   !- End Month , Day
   ,                                              !- Day of Week for Start Day
   No,                                            !- Use weather file holidays/special day periods
   Yes,                                           !- Use WeatherFile DaylightSavingPeriod - will use daylight saving time in weather file
   Yes,                                           !- Apply Weekend Holiday Rule - will reassign weekend holidays to Monday
   Yes,                                           !- use weather file rain indicators
   Yes,                                           !- use weather file snow indicators
   No;                                            !- Treat Weather as Actual

! Hourly weather file: C:\ProgramData\DesignBuilder\Weather Data\ISR_TEL AVIV-BET DAGAN_MSI.epw

Site:Location,1 (01-01:31-12)  (01-01:31-12),     !- Location Name
   32,                                            !- Latitude
   34.9,                                          !- Longitude
   2,                                             !- Time Zone
   49;                                            !- Elevation {m}

Site:GroundTemperature:BuildingSurface,           !- Annual ground temperatures - 1 value for each month
   18,                                            !- Jan ground temperature
   18,                                            !- Feb ground temperature
   18,                                            !- Mar ground temperature
   18,                                            !- Apr ground temperature
   18,                                            !- May ground temperature
   18,                                            !- Jun ground temperature
   18,                                            !- Jul ground temperature
   18,                                            !- Aug ground temperature
   18,                                            !- Sep ground temperature
   18,                                            !- Oct ground temperature
   18,                                            !- Nov ground temperature
   18;                                            !- Dec ground temperature

Site:GroundTemperature:Deep,                      !- Annual ground temperatures - 1 value for each month
   18,                                            !- Jan deep ground temperature
   18,                                            !- Feb deep ground temperature
   18,                                            !- Mar deep ground temperature
   18,                                            !- Apr deep ground temperature
   18,                                            !- May deep ground temperature
   18,                                            !- Jun deep ground temperature
   18,                                            !- Jul deep ground temperature
   18,                                            !- Aug deep ground temperature
   18,                                            !- Sep deep ground temperature
   18,                                            !- Oct deep ground temperature
   18,                                            !- Nov deep ground temperature
   18;                                            !- Dec deep ground temperature

Site:GroundTemperature:Shallow,                   !- Annual ground temperatures - 1 value for each month
   18,                                            !- Jan shallow ground temperature
   18,                                            !- Feb shallow ground temperature
   18,                                            !- Mar shallow ground temperature
   18,                                            !- Apr shallow ground temperature
   18,                                            !- May shallow ground temperature
   18,                                            !- Jun shallow ground temperature
   18,                                            !- Jul shallow ground temperature
   18,                                            !- Aug shallow ground temperature
   18,                                            !- Sep shallow ground temperature
   18,                                            !- Oct shallow ground temperature
   18,                                            !- Nov shallow ground temperature
   18;                                            !- Dec shallow ground temperature

Site:GroundTemperature:FCfactorMethod,            !- Annual ground temperatures - 1 value for each month
   14.56,                                         !- January FCfactorMethod ground temperature {C}
   15.21,                                         !- Februry FCfactorMethod ground temperature {C}
   16.32,                                         !- March FCfactorMethod ground temperature {C}
   21.47,                                         !- April FCfactorMethod ground temperature {C}
   26.48,                                         !- May FCfactorMethod ground temperature {C}
   30.09,                                         !- June FCfactorMethod ground temperature {C}
   32.2,                                          !- July FCfactorMethod ground temperature {C}
   33.24,                                         !- August FCfactorMethod ground temperature {C}
   31.42,                                         !- September FCfactorMethod ground temperature {C}
   27.68,                                         !- October FCfactorMethod ground temperature {C}
   21.81,                                         !- November FCfactorMethod ground temperature {C}
   17.94;                                         !- December FCfactorMethod ground temperature {C}

Site:GroundReflectance,                           !- Annual ground reflectances - 1 value for each month
   0.2,                                           !- Jan ground reflectance
   0.2,                                           !- Feb ground reflectance
   0.2,                                           !- Mar ground reflectance
   0.2,                                           !- Apr ground reflectance
   0.2,                                           !- May ground reflectance
   0.2,                                           !- Jun ground reflectance
   0.2,                                           !- Jul ground reflectance
   0.2,                                           !- Aug ground reflectance
   0.2,                                           !- Sep ground reflectance
   0.2,                                           !- Oct ground reflectance
   0.2,                                           !- Nov ground reflectance
   0.2;                                           !- Dec ground reflectance

Site:GroundReflectance:SnowModifier,
   2.0,                                           !- Ground Reflected Solar Modifier
   2.0;                                           !- Daylighting Ground Reflected Solar Modifier

SimulationControl,
   No,                                            !- Do the zone sizing calculation
   No,                                            !- Do the system sizing calculation
   No,                                            !- Do the plant sizing calculation
   No,                                            !- Do the design day calculation
   Yes;                                           !- Do the weather file calculation


Timestep, 6;                                      !- Timesteps/hour

ConvergenceLimits,
   1,                                             !- Minimum System Time Step (0=same as zone time step)
   25;                                            !- Maximum HVAC Iterations (1=min, 20=default)

ScheduleTypeLimits, Any Number;                         ! Not limited
ScheduleTypeLimits, Fraction,     0.0, 1.0, CONTINUOUS;
ScheduleTypeLimits, Temperature,  -60, 200, CONTINUOUS;
ScheduleTypeLimits, Control Type,   0,   4, DISCRETE;
ScheduleTypeLimits, On/Off,         0,   1, DISCRETE;

Schedule:Compact, 
      On,                                         ! Name
      Any Number,                                 ! Type
      Through: 12/31,                             ! Type
      For: AllDays,                               ! All days in year
      Until: 24:00,                               ! All hours in day
       1;     

Schedule:Compact, 
      Off,                                        ! Name
      Any Number,                                 ! Type
      Through: 12/31,                             ! Type
      For: AllDays,                               ! All days in year
      Until: 24:00,                               ! All hours in day
       0;     

Schedule:Compact, 
      Work efficiency,                            ! Name
      Any Number,                                 ! Type
      Through: 12/31,                             ! Type
      For: AllDays,                               ! All days in year
      Until: 24:00,                               ! All hours in day
       0;     

Schedule:Compact,
      OpaqueShade,                                ! Name
      Any Number,                                 ! Type
      Through: 12/31,                             ! Type
      For: AllDays,                               ! All days in year
      Until: 24:00,                               ! All hours in day
       0;     
       
Schedule:Compact,
    Zone Comfort Control Type Sched,              !- Name
    Control Type,                                 !- Schedule Type Limits Name
    Through: 12/31,                               !- Field 1
    For: AllDays,                                 !- Field 2
    Until: 24:00,                                 !- Field 3
    4;                                            !- Field 4

Schedule:Compact,
    Design Days Only,                             !- Name
    Any Number,                                   !- Schedule Type Limits Name
    Through: 12/31,                               !- Field 1
    For: SummerDesignDay WinterDesignDay,         !- Field 2
    Until: 24:00,                                 !- Field 3
    1,                                            !- Field 4
    For: AllOtherDays,                            !- Field 2
    Until: 24:00,                                 !- Field 3
    0;
      
! off heating day
Schedule:Day:Hourly,  0, Any Number,
   0,0,0,0,0,0,0,0,0,0,0,0,0,0,0,0,0,0,0,0,0,0,0,0;

! off cooling day
Schedule:Day:Hourly,  50, Any Number,
   50,50,50,50,50,50,50,50,50,50,50,50,50,50,50,50,50,50,50,50,50,50,50,50;

! used in seasonal schedules
Schedule:Day:Hourly,  Off, Fraction,
   0,0,0,0,0,0,0,0,0,0,0,0,0,0,0,0,0,0,0,0,0,0,0,0;

Schedule:Week:Daily, Off,
   Off,Off,Off,Off,
   Off,Off,Off,Off,
   Off,Off,Off,Off;

! -------------------- Control type schedules (for heating & cooling) ----------------------

Schedule:Day:Hourly, Summer Control Type Day Sch, Control Type,
   4,4,4,4,4,4,4,4,4,4,4,4,4,4,4,4,4,4,4,4,4,4,4,4;

Schedule:Day:Hourly, Winter Control Type Day Sch, Control Type,
   4,4,4,4,4,4,4,4,4,4,4,4,4,4,4,4,4,4,4,4,4,4,4,4;

Schedule:Day:Hourly, Summer Control Type Day Sch - cool, Control Type,
   2,2,2,2,2,2,2,2,2,2,2,2,2,2,2,2,2,2,2,2,2,2,2,2;

Schedule:Day:Hourly, Winter Control Type Day Sch - heat, Control Type,
   1,1,1,1,1,1,1,1,1,1,1,1,1,1,1,1,1,1,1,1,1,1,1,1;

Schedule:Week:Daily, Summer Control Type Week Sch,
   Summer Control Type Day Sch,Summer Control Type Day Sch,Summer Control Type Day Sch,
   Summer Control Type Day Sch,Summer Control Type Day Sch,Summer Control Type Day Sch,
   Summer Control Type Day Sch,Summer Control Type Day Sch,Summer Control Type Day Sch,
   Summer Control Type Day Sch,Summer Control Type Day Sch,Summer Control Type Day Sch;

Schedule:Week:Daily, Winter Control Type Week Sch,
   Winter Control Type Day Sch,Winter Control Type Day Sch,Winter Control Type Day Sch,
   Winter Control Type Day Sch,Winter Control Type Day Sch,Winter Control Type Day Sch,
   Winter Control Type Day Sch,Winter Control Type Day Sch,Winter Control Type Day Sch,
   Winter Control Type Day Sch,Winter Control Type Day Sch,Winter Control Type Day Sch;

Schedule:Week:Daily, Summer Control Type Week Sch - cool,
   Summer Control Type Day Sch - cool,Summer Control Type Day Sch - cool,Summer Control Type Day Sch - cool,
   Summer Control Type Day Sch - cool,Summer Control Type Day Sch - cool,Summer Control Type Day Sch - cool,
   Summer Control Type Day Sch - cool,Summer Control Type Day Sch - cool,Summer Control Type Day Sch - cool,
   Summer Control Type Day Sch - cool,Summer Control Type Day Sch - cool,Summer Control Type Day Sch - cool;

Schedule:Week:Daily, Winter Control Type Week Sch - heat,
   Winter Control Type Day Sch - heat,Winter Control Type Day Sch - heat,Winter Control Type Day Sch - heat,
   Winter Control Type Day Sch - heat,Winter Control Type Day Sch - heat,Winter Control Type Day Sch - heat,
   Winter Control Type Day Sch - heat,Winter Control Type Day Sch - heat,Winter Control Type Day Sch - heat,
   Winter Control Type Day Sch - heat,Winter Control Type Day Sch - heat,Winter Control Type Day Sch - heat;

!Material:InfraredTransparent,
!IRTMaterial; !- Name

!Construction,
!IRTSurface,  !- Name
!IRTMaterial; !- Outside Layer





Material:NoMass, 
LinearBridgingLayer,                  ! Material Name
Rough,                                ! Roughness
0.6267 ,                              ! Resistance {M**2K/W} will give Total Resistance 1
0.0000100 ,                           ! Thermal Absorptance
0.0000000 ,                           ! Solar Absorptance
0.0000000 ;                           ! Visible Absorptance

Construction,
LinearBridgingConstruction,           !- Name
LinearBridgingLayer;                  !- Layer

Schedule:Compact,
TypOperativeTempControlSch,
Temperature,
Through: 31 Dec,
For: SummerDesignDay WinterDesignDay,
Until: 24:00, 0.0,
For: AllOtherDays,
Until: 24:00, 0.5;

Schedule:Compact, 
      OnWinterDesignDay,                          ! Name
      Any Number,                                 
      Through: 12/31,                             
      For: WinterDesignDay,                       ! All days in year
      Until: 24:00, 1,
      For: AllOtherDays,
      Until: 24:00, 0;     

Schedule:Compact, 
      OnSummerDesignDay,                          ! Name
      Any Number,                                 
      Through: 12/31,                             
      For: SummerDesignDay,                       ! All days in year
      Until: 24:00, 1,
      For: AllOtherDays,
      Until: 24:00, 0;     

Material:InfraredTransparent,
IRTMaterial; !- Name

Construction,
IRTSurface,  !- Name
IRTMaterial; !- Outside Layer


! Profile: Off
Schedule:Day:Interval, 11 , Any number, No, 
24:00,  0;

! Profile: 8:00 to 18:00
Schedule:Day:List, 1 , Any number, No, 
60,
0,
0,
0,
0,
0,
0,
0,
0,
1,
1,
1,
1,
1,
1,
1,
1,
1,
1,
0,
0,
0,
0,
0,
0;

! Schedule: On 24/7
Schedule:Compact, 
On 24/7, 
Any Number,
Through: 12/31,
For: AllDays,   
Until: 24:00,   1 ;


! Schedule: Off 24/7
Schedule:Compact,
Off 24/7,
Any Number,
Through: 12/31,
For: AllDays,
Until: 24:00,  0  ;


! Schedule: 8:00 - 18:00 Mon - Sat
Schedule:Week:Daily, 8:00 - 18:00 Mon - Sat_Jan,  !- A Schedule:Week:Daily contains 12 DAYSCHEDULES, one for each day type
   11,                                            !- Sunday
   1,                                             !- Monday
   1,                                             !- Tuesday
   1,                                             !- Wednesday
   1,                                             !- Thursday
   1,                                             !- Friday
   1,                                             !- Saturday
   11,                                            !- Holiday
   1,                                             !- SummerDesignDay
   11,                                            !- WinterDesignDay
   1,                                             !- CustomDay1
   1;                                             !- CustomDay2

Schedule:Week:Daily, 8:00 - 18:00 Mon - Sat_Feb,  !- A Schedule:Week:Daily contains 12 DAYSCHEDULES, one for each day type
   11,                                            !- Sunday
   1,                                             !- Monday
   1,                                             !- Tuesday
   1,                                             !- Wednesday
   1,                                             !- Thursday
   1,                                             !- Friday
   1,                                             !- Saturday
   11,                                            !- Holiday
   1,                                             !- SummerDesignDay
   11,                                            !- WinterDesignDay
   1,                                             !- CustomDay1
   1;                                             !- CustomDay2

Schedule:Week:Daily, 8:00 - 18:00 Mon - Sat_Mar,  !- A Schedule:Week:Daily contains 12 DAYSCHEDULES, one for each day type
   11,                                            !- Sunday
   1,                                             !- Monday
   1,                                             !- Tuesday
   1,                                             !- Wednesday
   1,                                             !- Thursday
   1,                                             !- Friday
   1,                                             !- Saturday
   11,                                            !- Holiday
   1,                                             !- SummerDesignDay
   11,                                            !- WinterDesignDay
   1,                                             !- CustomDay1
   1;                                             !- CustomDay2

Schedule:Week:Daily, 8:00 - 18:00 Mon - Sat_Apr,  !- A Schedule:Week:Daily contains 12 DAYSCHEDULES, one for each day type
   11,                                            !- Sunday
   1,                                             !- Monday
   1,                                             !- Tuesday
   1,                                             !- Wednesday
   1,                                             !- Thursday
   1,                                             !- Friday
   1,                                             !- Saturday
   11,                                            !- Holiday
   1,                                             !- SummerDesignDay
   11,                                            !- WinterDesignDay
   1,                                             !- CustomDay1
   1;                                             !- CustomDay2

Schedule:Week:Daily, 8:00 - 18:00 Mon - Sat_May,  !- A Schedule:Week:Daily contains 12 DAYSCHEDULES, one for each day type
   11,                                            !- Sunday
   1,                                             !- Monday
   1,                                             !- Tuesday
   1,                                             !- Wednesday
   1,                                             !- Thursday
   1,                                             !- Friday
   1,                                             !- Saturday
   11,                                            !- Holiday
   1,                                             !- SummerDesignDay
   11,                                            !- WinterDesignDay
   1,                                             !- CustomDay1
   1;                                             !- CustomDay2

Schedule:Week:Daily, 8:00 - 18:00 Mon - Sat_Jun,  !- A Schedule:Week:Daily contains 12 DAYSCHEDULES, one for each day type
   11,                                            !- Sunday
   1,                                             !- Monday
   1,                                             !- Tuesday
   1,                                             !- Wednesday
   1,                                             !- Thursday
   1,                                             !- Friday
   1,                                             !- Saturday
   11,                                            !- Holiday
   1,                                             !- SummerDesignDay
   11,                                            !- WinterDesignDay
   1,                                             !- CustomDay1
   1;                                             !- CustomDay2

Schedule:Week:Daily, 8:00 - 18:00 Mon - Sat_Jul,  !- A Schedule:Week:Daily contains 12 DAYSCHEDULES, one for each day type
   11,                                            !- Sunday
   1,                                             !- Monday
   1,                                             !- Tuesday
   1,                                             !- Wednesday
   1,                                             !- Thursday
   1,                                             !- Friday
   1,                                             !- Saturday
   11,                                            !- Holiday
   1,                                             !- SummerDesignDay
   11,                                            !- WinterDesignDay
   1,                                             !- CustomDay1
   1;                                             !- CustomDay2

Schedule:Week:Daily, 8:00 - 18:00 Mon - Sat_Aug,  !- A Schedule:Week:Daily contains 12 DAYSCHEDULES, one for each day type
   11,                                            !- Sunday
   1,                                             !- Monday
   1,                                             !- Tuesday
   1,                                             !- Wednesday
   1,                                             !- Thursday
   1,                                             !- Friday
   1,                                             !- Saturday
   11,                                            !- Holiday
   1,                                             !- SummerDesignDay
   11,                                            !- WinterDesignDay
   1,                                             !- CustomDay1
   1;                                             !- CustomDay2

Schedule:Week:Daily, 8:00 - 18:00 Mon - Sat_Sep,  !- A Schedule:Week:Daily contains 12 DAYSCHEDULES, one for each day type
   11,                                            !- Sunday
   1,                                             !- Monday
   1,                                             !- Tuesday
   1,                                             !- Wednesday
   1,                                             !- Thursday
   1,                                             !- Friday
   1,                                             !- Saturday
   11,                                            !- Holiday
   1,                                             !- SummerDesignDay
   11,                                            !- WinterDesignDay
   1,                                             !- CustomDay1
   1;                                             !- CustomDay2

Schedule:Week:Daily, 8:00 - 18:00 Mon - Sat_Oct,  !- A Schedule:Week:Daily contains 12 DAYSCHEDULES, one for each day type
   11,                                            !- Sunday
   1,                                             !- Monday
   1,                                             !- Tuesday
   1,                                             !- Wednesday
   1,                                             !- Thursday
   1,                                             !- Friday
   1,                                             !- Saturday
   11,                                            !- Holiday
   1,                                             !- SummerDesignDay
   11,                                            !- WinterDesignDay
   1,                                             !- CustomDay1
   1;                                             !- CustomDay2

Schedule:Week:Daily, 8:00 - 18:00 Mon - Sat_Nov,  !- A Schedule:Week:Daily contains 12 DAYSCHEDULES, one for each day type
   11,                                            !- Sunday
   1,                                             !- Monday
   1,                                             !- Tuesday
   1,                                             !- Wednesday
   1,                                             !- Thursday
   1,                                             !- Friday
   1,                                             !- Saturday
   11,                                            !- Holiday
   1,                                             !- SummerDesignDay
   11,                                            !- WinterDesignDay
   1,                                             !- CustomDay1
   1;                                             !- CustomDay2

Schedule:Week:Daily, 8:00 - 18:00 Mon - Sat_Dec,  !- A Schedule:Week:Daily contains 12 DAYSCHEDULES, one for each day type
   11,                                            !- Sunday
   1,                                             !- Monday
   1,                                             !- Tuesday
   1,                                             !- Wednesday
   1,                                             !- Thursday
   1,                                             !- Friday
   1,                                             !- Saturday
   11,                                            !- Holiday
   1,                                             !- SummerDesignDay
   11,                                            !- WinterDesignDay
   1,                                             !- CustomDay1
   1;                                             !- CustomDay2


! Schedule: Dwell_DomBed_Occ
Schedule:Compact,
Dwell_DomBed_Occ,
Fraction,
Through: 31 Dec,
For: Weekdays SummerDesignDay,
Until: 07:00, 1,
Until: 08:00, 0.5,
Until: 09:00, 0.25,
Until: 22:00, 0,
Until: 23:00, 0.25,
Until: 24:00, 0.75,
For: Weekends,
Until: 07:00, 1,
Until: 08:00, 0.5,
Until: 09:00, 0.25,
Until: 22:00, 0,
Until: 23:00, 0.25,
Until: 24:00, 0.75,
For: Holidays,
Until: 07:00, 1,
Until: 08:00, 0.5,
Until: 09:00, 0.25,
Until: 22:00, 0,
Until: 23:00, 0.25,
Until: 24:00, 0.75,
For: WinterDesignDay AllOtherDays,
Until: 24:00, 0;


! Schedule: Default Air Velocity for Comfort Calculations
Schedule:Compact, 
Default Air Velocity for Comfort Calculations, 
Any Number,
Through: 12/31,
For: AllDays,   
Until: 24:00,   0.1370 ;


! Schedule: 0_Baseline Residential Lighting Schedule
Schedule:Compact,
0_Baseline Residential Lighting Schedule,
Fraction,
Through: 31 Dec,
For: AllDays,
Until: 17:00, 0,
Until: 24:00, 1;


! Schedule: 0_Baseline Residential Occupancy Schedule
Schedule:Compact,
0_Baseline Residential Occupancy Schedule,
Fraction,
Through: 31 Dec,
For: Alldays,
Until: 08:00, 0.64,
Until: 16:00, 0,
Until: 24:00, 1;


! Schedule: 0_(2017) Baseline Residential Equipment Schedule
Schedule:Compact,
0_(2017) Baseline Residential Equipment Schedule,
Fraction,
Through: 31 Dec,
For: AllDays,
Until: 24:00, 1;


! Schedule: 0_(2017) Baseline Residential Non Fixed Equipment Schedule
Schedule:Compact,
0_(2017) Baseline Residential Non Fixed Equipment Schedule,
Fraction,
Through: 31 Dec,
For: AllDays,
Until: 16:00, 0,
Until: 24:00, 1;


! Schedule: 0_(2023) Baseline Residential Shading Schedule - Zones A/B
Schedule:Compact,
0_(2023) Baseline Residential Shading Schedule - Zones A/B,
On,
Through: 31 Mar,
For: Alldays,
Until: 06:00, 1,
Until: 18:00, 0,
Until: 24:00, 1,
Through: 30 Nov,
For: Alldays,
Until: 06:00, 0,
Until: 18:00, 1,
Until: 24:00, 0,
Through: 31 Dec,
For: Alldays,
Until: 06:00, 1,
Until: 18:00, 0,
Until: 24:00, 1;


! Schedule: 0_(2023) Residential Natural ventilation Schedule - Zones  A/B
Schedule:Compact,
0_(2023) Residential Natural ventilation Schedule - Zones  A/B,
Fraction,
Through: 31 March,
For: AllDays,
Until: 24:00, 0,
Through: 30 November,
For: AllDays,
Until: 07:00, 1,
Until: 20:00, 0,
Until: 24:00, 1,
Through: 31 December,
For: AllDays,
Until: 24:00, 0;


! Schedule: 8:00 - 18:00 Mon - Sat
Schedule:Year, 8:00 - 18:00 Mon - Sat, Any number,!- A SCHEDULE contains from 1 to 18 Schedule:Week:Daily
   8:00 - 18:00 Mon - Sat_Jan, 1, 1, 1, 31,       !- Schedule:Week:Daily - From date to date
   8:00 - 18:00 Mon - Sat_Feb, 2, 1, 2, 28,       !- Schedule:Week:Daily - From date to date
   8:00 - 18:00 Mon - Sat_Mar, 3, 1, 3, 31,       !- Schedule:Week:Daily - From date to date
   8:00 - 18:00 Mon - Sat_Apr, 4, 1, 4, 30,       !- Schedule:Week:Daily - From date to date
   8:00 - 18:00 Mon - Sat_May, 5, 1, 5, 31,       !- Schedule:Week:Daily - From date to date
   8:00 - 18:00 Mon - Sat_Jun, 6, 1, 6, 30,       !- Schedule:Week:Daily - From date to date