! File generated by DesignBuilder - 7.3.0.029 14/11/2024 - 10:42:14
! Source file: C:\Users\T-C\Desktop\DB\north campos - cls\cls_Office_7.11.24.dsb

! Geometry convention template : ASHRAE 90.1
! Zone geometry and surface areas : 2-Outer
! Zone volume calculation method : 2-Outer
! Zone floor area calculation method : 2-Outer
! Window to wall ratio method : 2-Outer

Version, 9.4.0.002;                               !- Version Identifier

RunPeriod,                                        !- Annual simulation
   1 (01-01:31-12),                               !- Location
   1,1, 2002,                                     !- Start Month , Day
   12,31, 2002,                                   !- End Month , Day
   ,                                              !- Day of Week for Start Day
   No,                                            !- Use weather file holidays/special day periods
   Yes,                                           !- Use WeatherFile DaylightSavingPeriod - will use daylight saving time in weather file
   Yes,                                           !- Apply Weekend Holiday Rule - will reassign weekend holidays to Monday
   Yes,                                           !- use weather file rain indicators
   Yes,                                           !- use weather file snow indicators
   No;                                            !- Treat Weather as Actual

! Hourly weather file: C:\ProgramData\DesignBuilder\Weather Data\ISR_BEER SHEVA CITY_MSI.epw

Site:Location,1 (01-01:31-12)  (01-01:31-12),     !- Location Name
   31.23,                                         !- Latitude
   34.78,                                         !- Longitude
   2,                                             !- Time Zone
   280;                                           !- Elevation {m}

Site:GroundTemperature:BuildingSurface,           !- Annual ground temperatures - 1 value for each month
   18,                                            !- Jan ground temperature
   18,                                            !- Feb ground temperature
   18,                                            !- Mar ground temperature
   18,                                            !- Apr ground temperature
   18,                                            !- May ground temperature
   18,                                            !- Jun ground temperature
   18,                                            !- Jul ground temperature
   18,                                            !- Aug ground temperature
   18,                                            !- Sep ground temperature
   18,                                            !- Oct ground temperature
   18,                                            !- Nov ground temperature
   18;                                            !- Dec ground temperature

Site:GroundTemperature:Deep,                      !- Annual ground temperatures - 1 value for each month
   18,                                            !- Jan deep ground temperature
   18,                                            !- Feb deep ground temperature
   18,                                            !- Mar deep ground temperature
   18,                                            !- Apr deep ground temperature
   18,                                            !- May deep ground temperature
   18,                                            !- Jun deep ground temperature
   18,                                            !- Jul deep ground temperature
   18,                                            !- Aug deep ground temperature
   18,                                            !- Sep deep ground temperature
   18,                                            !- Oct deep ground temperature
   18,                                            !- Nov deep ground temperature
   18;                                            !- Dec deep ground temperature

Site:GroundTemperature:Shallow,                   !- Annual ground temperatures - 1 value for each month
   18,                                            !- Jan shallow ground temperature
   18,                                            !- Feb shallow ground temperature
   18,                                            !- Mar shallow ground temperature
   18,                                            !- Apr shallow ground temperature
   18,                                            !- May shallow ground temperature
   18,                                            !- Jun shallow ground temperature
   18,                                            !- Jul shallow ground temperature
   18,                                            !- Aug shallow ground temperature
   18,                                            !- Sep shallow ground temperature
   18,                                            !- Oct shallow ground temperature
   18,                                            !- Nov shallow ground temperature
   18;                                            !- Dec shallow ground temperature

Site:GroundTemperature:FCfactorMethod,            !- Annual ground temperatures - 1 value for each month
   18.44,                                         !- January FCfactorMethod ground temperature {C}
   15.24,                                         !- Februry FCfactorMethod ground temperature {C}
   13.28,                                         !- March FCfactorMethod ground temperature {C}
   12.69,                                         !- April FCfactorMethod ground temperature {C}
   13.86,                                         !- May FCfactorMethod ground temperature {C}
   16.52,                                         !- June FCfactorMethod ground temperature {C}
   19.81,                                         !- July FCfactorMethod ground temperature {C}
   23.04,                                         !- August FCfactorMethod ground temperature {C}
   25.2,                                          !- September FCfactorMethod ground temperature {C}
   25.71,                                         !- October FCfactorMethod ground temperature {C}
   24.46,                                         !- November FCfactorMethod ground temperature {C}
   21.85;                                         !- December FCfactorMethod ground temperature {C}

Site:GroundReflectance,                           !- Annual ground reflectances - 1 value for each month
   0.2,                                           !- Jan ground reflectance
   0.2,                                           !- Feb ground reflectance
   0.2,                                           !- Mar ground reflectance
   0.2,                                           !- Apr ground reflectance
   0.2,                                           !- May ground reflectance
   0.2,                                           !- Jun ground reflectance
   0.2,                                           !- Jul ground reflectance
   0.2,                                           !- Aug ground reflectance
   0.2,                                           !- Sep ground reflectance
   0.2,                                           !- Oct ground reflectance
   0.2,                                           !- Nov ground reflectance
   0.2;                                           !- Dec ground reflectance

Site:GroundReflectance:SnowModifier,
   2.0,                                           !- Ground Reflected Solar Modifier
   2.0;                                           !- Daylighting Ground Reflected Solar Modifier

SimulationControl,
   Yes,                                           !- Do the zone sizing calculation
   Yes,                                           !- Do the system sizing calculation
   No,                                            !- Do the plant sizing calculation
   No,                                            !- Do the design day calculation
   Yes;                                           !- Do the weather file calculation


SizingPeriod:DesignDay, Summer Design Day in 1 (01-01:31-12) Jun,  !- Design Day Name
   6,                                             !- Month
   15,                                            !- Day of Month
   SummerDesignDay,                               !- Day Type -- used for schedules
   37.5,                                          !- Maximum Dry-Bulb Temperature {C}
   14.2,                                          !- Daily Dry-Bulb Temperature Range {C}
   ,                                              !- Dry-Bulb Temperature Range Modifier Type
   ,                                              !- Dry-Bulb Temperature Range Modifier Schedule
   WetBulb,                                       !- Humidity Condition Type
   18.7,                                          !- Wetbulb at Maximum Dry-Bulb{C}
   ,                                              !- Humidity Condition Day Schedule Name
   ,                                              !- Humidity Ratio at Maximum Dry-Bulb
   ,                                              !- Enthalpy Ratio at Maximum Dry-Bulb
   ,                                              !- Daily Wet-Bulb Temperature Range
   98006.2,                                       !- Barometric Pressure {N/M**2}
   0,                                             !- Wind Speed {m/s}
   0,                                             !- Wind Direction {Degrees N=0, S=180}
   No,                                            !- Rain Indicator
   No,                                            !- Snow on ground indicator
   No,                                            !- Daylight Savings Time Indicator
   ASHRAEClearSky,                                !- Solar Model Indicator
   ,                                              !- Beam Solar Day Schedule Name
   ,                                              !- Diffuse Solar Day Schedule Name
   ,                                              !- ASHRAE Clear Sky Optical Depth for Beam Irradiance (taub)
   ,                                              !- ASHRAE Clear Sky Optical Depth for Diffuse Irradiance (taud)
   0.98;                                          !- Clearness {0.0 to 1.2}

SizingPeriod:DesignDay, Summer Design Day in 1 (01-01:31-12) Jul,  !- Design Day Name
   7,                                             !- Month
   15,                                            !- Day of Month
   SummerDesignDay,                               !- Day Type -- used for schedules
   36.5,                                          !- Maximum Dry-Bulb Temperature {C}
   12.9,                                          !- Daily Dry-Bulb Temperature Range {C}
   ,                                              !- Dry-Bulb Temperature Range Modifier Type
   ,                                              !- Dry-Bulb Temperature Range Modifier Schedule
   WetBulb,                                       !- Humidity Condition Type
   20.9,                                          !- Wetbulb at Maximum Dry-Bulb{C}
   ,                                              !- Humidity Condition Day Schedule Name
   ,                                              !- Humidity Ratio at Maximum Dry-Bulb
   ,                                              !- Enthalpy Ratio at Maximum Dry-Bulb
   ,                                              !- Daily Wet-Bulb Temperature Range
   98006.2,                                       !- Barometric Pressure {N/M**2}
   0,                                             !- Wind Speed {m/s}
   0,                                             !- Wind Direction {Degrees N=0, S=180}
   No,                                            !- Rain Indicator
   No,                                            !- Snow on ground indicator
   No,                                            !- Daylight Savings Time Indicator
   ASHRAEClearSky,                                !- Solar Model Indicator
   ,                                              !- Beam Solar Day Schedule Name
   ,                                              !- Diffuse Solar Day Schedule Name
   ,                                              !- ASHRAE Clear Sky Optical Depth for Beam Irradiance (taub)
   ,                                              !- ASHRAE Clear Sky Optical Depth for Diffuse Irradiance (taud)
   0.98;                                          !- Clearness {0.0 to 1.2}

SizingPeriod:DesignDay, Summer Design Day in 1 (01-01:31-12) Aug,  !- Design Day Name
   8,                                             !- Month
   15,                                            !- Day of Month
   SummerDesignDay,                               !- Day Type -- used for schedules
   35.1,                                          !- Maximum Dry-Bulb Temperature {C}
   11.5,                                          !- Daily Dry-Bulb Temperature Range {C}
   ,                                              !- Dry-Bulb Temperature Range Modifier Type
   ,                                              !- Dry-Bulb Temperature Range Modifier Schedule
   WetBulb,                                       !- Humidity Condition Type
   22.5,                                          !- Wetbulb at Maximum Dry-Bulb{C}
   ,                                              !- Humidity Condition Day Schedule Name
   ,                                              !- Humidity Ratio at Maximum Dry-Bulb
   ,                                              !- Enthalpy Ratio at Maximum Dry-Bulb
   ,                                              !- Daily Wet-Bulb Temperature Range
   98006.2,                                       !- Barometric Pressure {N/M**2}
   0,                                             !- Wind Speed {m/s}
   0,                                             !- Wind Direction {Degrees N=0, S=180}
   No,                                            !- Rain Indicator
   No,                                            !- Snow on ground indicator
   No,                                            !- Daylight Savings Time Indicator
   ASHRAEClearSky,                                !- Solar Model Indicator
   ,                                              !- Beam Solar Day Schedule Name
   ,                                              !- Diffuse Solar Day Schedule Name
   ,                                              !- ASHRAE Clear Sky Optical Depth for Beam Irradiance (taub)
   ,                                              !- ASHRAE Clear Sky Optical Depth for Diffuse Irradiance (taud)
   0.98;                                          !- Clearness {0.0 to 1.2}

SizingPeriod:DesignDay, Summer Design Day in 1 (01-01:31-12) Sep,  !- Design Day Name
   9,                                             !- Month
   15,                                            !- Day of Month
   SummerDesignDay,                               !- Day Type -- used for schedules
   36.2,                                          !- Maximum Dry-Bulb Temperature {C}
   12,                                            !- Daily Dry-Bulb Temperature Range {C}
   ,                                              !- Dry-Bulb Temperature Range Modifier Type
   ,                                              !- Dry-Bulb Temperature Range Modifier Schedule
   WetBulb,                                       !- Humidity Condition Type
   20.1,                                          !- Wetbulb at Maximum Dry-Bulb{C}
   ,                                              !- Humidity Condition Day Schedule Name
   ,                                              !- Humidity Ratio at Maximum Dry-Bulb
   ,                                              !- Enthalpy Ratio at Maximum Dry-Bulb
   ,                                              !- Daily Wet-Bulb Temperature Range
   98006.2,                                       !- Barometric Pressure {N/M**2}
   0,                                             !- Wind Speed {m/s}
   0,                                             !- Wind Direction {Degrees N=0, S=180}
   No,                                            !- Rain Indicator
   No,                                            !- Snow on ground indicator
   No,                                            !- Daylight Savings Time Indicator
   ASHRAEClearSky,                                !- Solar Model Indicator
   ,                                              !- Beam Solar Day Schedule Name
   ,                                              !- Diffuse Solar Day Schedule Name
   ,                                              !- ASHRAE Clear Sky Optical Depth for Beam Irradiance (taub)
   ,                                              !- ASHRAE Clear Sky Optical Depth for Diffuse Irradiance (taud)
   0.98;                                          !- Clearness {0.0 to 1.2}

SizingPeriod:DesignDay, Winter Design Day in 1 (01-01:31-12),  !- Design Day Name
   1,                                             !- Month
   15,                                            !- Day of Month
   WinterDesignDay,                               !- Day Type -- used for schedules
   5.2,                                           !- Max Dry-Bulb {C}
   0,                                             !- Daily Temp Range {C}
   ,                                              !- Dry-Bulb Temperature Range Modifier Type
   ,                                              !- Dry-Bulb Temperature Range Modifier Schedule
   WetBulb,                                       !- Humidity Condition Type
   5.2,                                           !- Wet-Bulb at Max {C}
   ,                                              !- Humidity Condition Day Schedule Name
   ,                                              !- Humidity Ratio at Maximum Dry-Bulb
   ,                                              !- Enthalpy Ratio at Maximum Dry-Bulb
   ,                                              !- Daily Wet-Bulb Temperature Range
   98006.2,                                       !- Barometric Pressure {N/M**2}
   4.1,                                           !- Wind Speed {M/Sec}
   120,                                           !- Wind Direction {Degrees N=0, S=180}
   No,                                            !- Rain Indicator
   No,                                            !- Snow on ground indicator
   No,                                            !- Daylight Savings Time Indicator
   ,                                              !- Solar Model Indicator
   ,                                              !- Beam Solar Day Schedule Name
   ,                                              !- Diffuse Solar Day Schedule Name
   ,                                              !- ASHRAE Clear Sky Optical Depth for Beam Irradiance (taub)
   ,                                              !- ASHRAE Clear Sky Optical Depth for Diffuse Irradiance (taud)
   0;                                             !- Clearness {0.0 to 1.2} - gives no sun (but does include long wave radiant heat exchange with sky)

Timestep, 2;                                      !- Timesteps/hour

ConvergenceLimits,
   1,                                             !- Minimum System Time Step (0=same as zone time step)
   25;                                            !- Maximum HVAC Iterations (1=min, 20=default)

ScheduleTypeLimits, Any Number;                         ! Not limited
ScheduleTypeLimits, Fraction,     0.0, 1.0, CONTINUOUS;
ScheduleTypeLimits, Temperature,  -60, 200, CONTINUOUS;
ScheduleTypeLimits, Control Type,   0,   4, DISCRETE;
ScheduleTypeLimits, On/Off,         0,   1, DISCRETE;

Schedule:Compact, 
      On,                                         ! Name
      Any Number,                                 ! Type
      Through: 12/31,                             ! Type
      For: AllDays,                               ! All days in year
      Until: 24:00,                               ! All hours in day
       1;     

Schedule:Compact, 
      Off,                                        ! Name
      Any Number,                                 ! Type
      Through: 12/31,                             ! Type
      For: AllDays,                               ! All days in year
      Until: 24:00,                               ! All hours in day
       0;     

Schedule:Compact, 
      Work efficiency,                            ! Name
      Any Number,                                 ! Type
      Through: 12/31,                             ! Type
      For: AllDays,                               ! All days in year
      Until: 24:00,                               ! All hours in day
       0;     

Schedule:Compact,
      OpaqueShade,                                ! Name
      Any Number,                                 ! Type
      Through: 12/31,                             ! Type
      For: AllDays,                               ! All days in year
      Until: 24:00,                               ! All hours in day
       0;     
       
Schedule:Compact,
    Zone Comfort Control Type Sched,              !- Name
    Control Type,                                 !- Schedule Type Limits Name
    Through: 12/31,                               !- Field 1
    For: AllDays,                                 !- Field 2
    Until: 24:00,                                 !- Field 3
    4;                                            !- Field 4

Schedule:Compact,
    Design Days Only,                             !- Name
    Any Number,                                   !- Schedule Type Limits Name
    Through: 12/31,                               !- Field 1
    For: SummerDesignDay WinterDesignDay,         !- Field 2
    Until: 24:00,                                 !- Field 3
    1,                                            !- Field 4
    For: AllOtherDays,                            !- Field 2
    Until: 24:00,                                 !- Field 3
    0;
      
! off heating day
Schedule:Day:Hourly,  0, Any Number,
   0,0,0,0,0,0,0,0,0,0,0,0,0,0,0,0,0,0,0,0,0,0,0,0;

! off cooling day
Schedule:Day:Hourly,  50, Any Number,
   50,50,50,50,50,50,50,50,50,50,50,50,50,50,50,50,50,50,50,50,50,50,50,50;

! used in seasonal schedules
Schedule:Day:Hourly,  Off, Fraction,
   0,0,0,0,0,0,0,0,0,0,0,0,0,0,0,0,0,0,0,0,0,0,0,0;

Schedule:Week:Daily, Off,
   Off,Off,Off,Off,
   Off,Off,Off,Off,
   Off,Off,Off,Off;

! -------------------- Control type schedules (for heating & cooling) ----------------------

Schedule:Day:Hourly, Summer Control Type Day Sch, Control Type,
   4,4,4,4,4,4,4,4,4,4,4,4,4,4,4,4,4,4,4,4,4,4,4,4;

Schedule:Day:Hourly, Winter Control Type Day Sch, Control Type,
   4,4,4,4,4,4,4,4,4,4,4,4,4,4,4,4,4,4,4,4,4,4,4,4;

Schedule:Day:Hourly, Summer Control Type Day Sch - cool, Control Type,
   2,2,2,2,2,2,2,2,2,2,2,2,2,2,2,2,2,2,2,2,2,2,2,2;

Schedule:Day:Hourly, Winter Control Type Day Sch - heat, Control Type,
   1,1,1,1,1,1,1,1,1,1,1,1,1,1,1,1,1,1,1,1,1,1,1,1;

Schedule:Week:Daily, Summer Control Type Week Sch,
   Summer Control Type Day Sch,Summer Control Type Day Sch,Summer Control Type Day Sch,
   Summer Control Type Day Sch,Summer Control Type Day Sch,Summer Control Type Day Sch,
   Summer Control Type Day Sch,Summer Control Type Day Sch,Summer Control Type Day Sch,
   Summer Control Type Day Sch,Summer Control Type Day Sch,Summer Control Type Day Sch;

Schedule:Week:Daily, Winter Control Type Week Sch,
   Winter Control Type Day Sch,Winter Control Type Day Sch,Winter Control Type Day Sch,
   Winter Control Type Day Sch,Winter Control Type Day Sch,Winter Control Type Day Sch,
   Winter Control Type Day Sch,Winter Control Type Day Sch,Winter Control Type Day Sch,
   Winter Control Type Day Sch,Winter Control Type Day Sch,Winter Control Type Day Sch;

Schedule:Week:Daily, Summer Control Type Week Sch - cool,
   Summer Control Type Day Sch - cool,Summer Control Type Day Sch - cool,Summer Control Type Day Sch - cool,
   Summer Control Type Day Sch - cool,Summer Control Type Day Sch - cool,Summer Control Type Day Sch - cool,
   Summer Control Type Day Sch - cool,Summer Control Type Day Sch - cool,Summer Control Type Day Sch - cool,
   Summer Control Type Day Sch - cool,Summer Control Type Day Sch - cool,Summer Control Type Day Sch - cool;

Schedule:Week:Daily, Winter Control Type Week Sch - heat,
   Winter Control Type Day Sch - heat,Winter Control Type Day Sch - heat,Winter Control Type Day Sch - heat,
   Winter Control Type Day Sch - heat,Winter Control Type Day Sch - heat,Winter Control Type Day Sch - heat,
   Winter Control Type Day Sch - heat,Winter Control Type Day Sch - heat,Winter Control Type Day Sch - heat,
   Winter Control Type Day Sch - heat,Winter Control Type Day Sch - heat,Winter Control Type Day Sch - heat;

!Material:InfraredTransparent,
!IRTMaterial; !- Name

!Construction,
!IRTSurface,  !- Name
!IRTMaterial; !- Outside Layer





Material:NoMass, 
LinearBridgingLayer,                  ! Material Name
Rough,                                ! Roughness
0.6267 ,                              ! Resistance {M**2K/W} will give Total Resistance 1
0.0000100 ,                           ! Thermal Absorptance
0.0000000 ,                           ! Solar Absorptance
0.0000000 ;                           ! Visible Absorptance

Construction,
LinearBridgingConstruction,           !- Name
LinearBridgingLayer;                  !- Layer

Schedule:Compact,
TypOperativeTempControlSch,
Temperature,
Through: 31 Dec,
For: SummerDesignDay WinterDesignDay,
Until: 24:00, 0.0,
For: AllOtherDays,
Until: 24:00, 0.5;

Schedule:Compact, 
      OnWinterDesignDay,                          ! Name
      Any Number,                                 
      Through: 12/31,                             
      For: WinterDesignDay,                       ! All days in year
      Until: 24:00, 1,
      For: AllOtherDays,
      Until: 24:00, 0;     

Schedule:Compact, 
      OnSummerDesignDay,                          ! Name
      Any Number,                                 
      Through: 12/31,                             
      For: SummerDesignDay,                       ! All days in year
      Until: 24:00, 1,
      For: AllOtherDays,
      Until: 24:00, 0;     

Material:InfraredTransparent,
IRTMaterial; !- Name

Construction,
IRTSurface,  !- Name
IRTMaterial; !- Outside Layer


! Schedule: On 24/7
Schedule:Compact, 
On 24/7, 
Any Number,
Through: 12/31,
For: AllDays,   
Until: 24:00,   1 ;


! Schedule: Off 24/7
Schedule:Compact,
Off 24/7,
Any Number,
Through: 12/31,
For: AllDays,
Until: 24:00,  0  ;


! Schedule: Office_OpenOff_Occ
Schedule:Compact,
Office_OpenOff_Occ,
Fraction,
Through: 31 Dec,
For: Weekdays SummerDesignDay,
Until: 07:00, 0,
Until: 08:00, 0.25,
Until: 09:00, 0.5,
Until: 12:00, 1,
Until: 14:00, 0.75,
Until: 17:00, 1,
Until: 18:00, 0.5,
Until: 19:00, 0.25,
Until: 24:00, 0,
For: Weekends,
Until: 24:00, 0,
For: Holidays,
Until: 24:00, 0,
For: WinterDesignDay AllOtherDays,
Until: 24:00, 0;


! Schedule: Default Air Velocity for Comfort Calculations
Schedule:Compact, 
Default Air Velocity for Comfort Calculations, 
Any Number,
Through: 12/31,
For: AllDays,   
Until: 24:00,   0.1370 ;


! Schedule: 0_Baseline Office Lighting Schedule
Schedule:Compact,
0_Baseline Office Lighting Schedule,
Fraction,
Through: 31 Dec,
For: AllDays,
Until: 08:00, 0.0666,
Until: 17:00, 1,
Until: 24:00, 0.0666;


! Schedule: 0_Baseline Office Non Fixed Equipment Schedule
Schedule:Compact,
0_Baseline Office Non Fixed Equipment Schedule,
Fraction,
Through: 31 Dec,
For: Alldays,
Until: 08:00, 0,
Until: 17:00, 1,
Until: 24:00, 0;


! Schedule: 0_Baseline Office Fixed Equipment Schedule
Schedule:Compact,
0_Baseline Office Fixed Equipment Schedule,
Fraction,
Through: 31 Dec,
For: AllDays,
Until: 24:00, 1;


! Schedule: 0_Baseline Office Occupency Schedule
Schedule:Compact,
0_Baseline Office Occupency Schedule,
Fraction,
Through: 31 Dec,
For: AllDays,
Until: 08:00, 0,
Until: 17:00, 1,
Until: 24:00, 0;




WindowMaterial:Glazing,3,                         !- Generic CLEAR 6MM
   SpectralAverage,                               !- Optical data type {SpectralAverage or Spectral}
   ,                                              !- Name of spectral data set when Optical Data Type = Spectral
   .006,                                          !- Thickness {m}
   .775,                                          !- Solar transmittance at normal incidence
   .071,                                          !- Solar reflectance at normal incidence: front side
   .071,                                          !- Solar reflectance at normal incidence: back side
   .881,                                          !- Visible transmittance at normal incidence
   .080,                                          !- Visible reflectance at normal incidence: front side
   .080,                                          !- Visible reflectance at normal incidence: back side
   .0,                                            !- IR transmittance at normal incidence
   .84,                                           !- IR emissivity: front side
   .84,                                           !- IR emissivity: back side
   .9,                                            !- Conductivity {W/m-K}
   1;                                             !- Dirt Correction Factor for Solar and Visible Transmittance

WindowMaterial:Shade,20034,                       !- Drapes - close weave dark
   0.05,                                          !- Solar transmittance