! File generated by DesignBuilder - 7.3.1.003 18/08/2025 - 11:34:35
! Source file: C:\Users\T-C\Desktop\design builder\D CENTER BAYT SHEMESH\office\decenter office new temp16.8.25.dsb

! Geometry convention template : ASHRAE 90.1
! Zone geometry and surface areas : 2-Outer
! Zone volume calculation method : 1-Inner
! Zone floor area calculation method : 2-Outer
! Window to wall ratio method : 2-Outer

Version, 9.4.0.002;                               !- Version Identifier

RunPeriod,                                        !- Annual simulation
   1 (01-01:31-12),                               !- Location
   1,1, 2002,                                     !- Start Month , Day
   12,31, 2002,                                   !- End Month , Day
   ,                                              !- Day of Week for Start Day
   No,                                            !- Use weather file holidays/special day periods
   Yes,                                           !- Use WeatherFile DaylightSavingPeriod - will use daylight saving time in weather file
   Yes,                                           !- Apply Weekend Holiday Rule - will reassign weekend holidays to Monday
   Yes,                                           !- use weather file rain indicators
   Yes,                                           !- use weather file snow indicators
   No;                                            !- Treat Weather as Actual

! Hourly weather file: C:\ProgramData\DesignBuilder\Weather Data\ISR_BEER SHEVA CITY_MSI.epw

Site:Location,1 (01-01:31-12)  (01-01:31-12),     !- Location Name
   31.23,                                         !- Latitude
   34.78,                                         !- Longitude
   2,                                             !- Time Zone
   280;                                           !- Elevation {m}

Site:GroundTemperature:BuildingSurface,           !- Annual ground temperatures - 1 value for each month
   18,                                            !- Jan ground temperature
   18,                                            !- Feb ground temperature
   18,                                            !- Mar ground temperature
   18,                                            !- Apr ground temperature
   18,                                            !- May ground temperature
   18,                                            !- Jun ground temperature
   18,                                            !- Jul ground temperature
   18,                                            !- Aug ground temperature
   18,                                            !- Sep ground temperature
   18,                                            !- Oct ground temperature
   18,                                            !- Nov ground temperature
   18;                                            !- Dec ground temperature

Site:GroundTemperature:Deep,                      !- Annual ground temperatures - 1 value for each month
   18,                                            !- Jan deep ground temperature
   18,                                            !- Feb deep ground temperature
   18,                                            !- Mar deep ground temperature
   18,                                            !- Apr deep ground temperature
   18,                                            !- May deep ground temperature
   18,                                            !- Jun deep ground temperature
   18,                                            !- Jul deep ground temperature
   18,                                            !- Aug deep ground temperature
   18,                                            !- Sep deep ground temperature
   18,                                            !- Oct deep ground temperature
   18,                                            !- Nov deep ground temperature
   18;                                            !- Dec deep ground temperature

Site:GroundTemperature:Shallow,                   !- Annual ground temperatures - 1 value for each month
   18,                                            !- Jan shallow ground temperature
   18,                                            !- Feb shallow ground temperature
   18,                                            !- Mar shallow ground temperature
   18,                                            !- Apr shallow ground temperature
   18,                                            !- May shallow ground temperature
   18,                                            !- Jun shallow ground temperature
   18,                                            !- Jul shallow ground temperature
   18,                                            !- Aug shallow ground temperature
   18,                                            !- Sep shallow ground temperature
   18,                                            !- Oct shallow ground temperature
   18,                                            !- Nov shallow ground temperature
   18;                                            !- Dec shallow ground temperature

Site:GroundTemperature:FCfactorMethod,            !- Annual ground temperatures - 1 value for each month
   18.44,                                         !- January FCfactorMethod ground temperature {C}
   15.24,                                         !- Februry FCfactorMethod ground temperature {C}
   13.28,                                         !- March FCfactorMethod ground temperature {C}
   12.69,                                         !- April FCfactorMethod ground temperature {C}
   13.86,                                         !- May FCfactorMethod ground temperature {C}
   16.52,                                         !- June FCfactorMethod ground temperature {C}
   19.81,                                         !- July FCfactorMethod ground temperature {C}
   23.04,                                         !- August FCfactorMethod ground temperature {C}
   25.2,                                          !- September FCfactorMethod ground temperature {C}
   25.71,                                         !- October FCfactorMethod ground temperature {C}
   24.46,                                         !- November FCfactorMethod ground temperature {C}
   21.85;                                         !- December FCfactorMethod ground temperature {C}

Site:GroundReflectance,                           !- Annual ground reflectances - 1 value for each month
   0.2,                                           !- Jan ground reflectance
   0.2,                                           !- Feb ground reflectance
   0.2,                                           !- Mar ground reflectance
   0.2,                                           !- Apr ground reflectance
   0.2,                                           !- May ground reflectance
   0.2,                                           !- Jun ground reflectance
   0.2,                                           !- Jul ground reflectance
   0.2,                                           !- Aug ground reflectance
   0.2,                                           !- Sep ground reflectance
   0.2,                                           !- Oct ground reflectance
   0.2,                                           !- Nov ground reflectance
   0.2;                                           !- Dec ground reflectance

Site:GroundReflectance:SnowModifier,
   2.0,                                           !- Ground Reflected Solar Modifier
   2.0;                                           !- Daylighting Ground Reflected Solar Modifier

SimulationControl,
   No,                                            !- Do the zone sizing calculation
   No,                                            !- Do the system sizing calculation
   No,                                            !- Do the plant sizing calculation
   No,                                            !- Do the design day calculation
   Yes;                                           !- Do the weather file calculation


Timestep, 6;                                      !- Timesteps/hour

ConvergenceLimits,
   1,                                             !- Minimum System Time Step (0=same as zone time step)
   25;                                            !- Maximum HVAC Iterations (1=min, 20=default)

ScheduleTypeLimits, Any Number;                         ! Not limited
ScheduleTypeLimits, Fraction,     0.0, 1.0, CONTINUOUS;
ScheduleTypeLimits, Temperature,  -60, 200, CONTINUOUS;
ScheduleTypeLimits, Control Type,   0,   4, DISCRETE;
ScheduleTypeLimits, On/Off,         0,   1, DISCRETE;

Schedule:Compact, 
      On,                                         ! Name
      Any Number,                                 ! Type
      Through: 12/31,                             ! Type
      For: AllDays,                               ! All days in year
      Until: 24:00,                               ! All hours in day
       1;     

Schedule:Compact, 
      Off,                                        ! Name
      Any Number,                                 ! Type
      Through: 12/31,                             ! Type
      For: AllDays,                               ! All days in year
      Until: 24:00,                               ! All hours in day
       0;     

Schedule:Compact, 
      Work efficiency,                            ! Name
      Any Number,                                 ! Type
      Through: 12/31,                             ! Type
      For: AllDays,                               ! All days in year
      Until: 24:00,                               ! All hours in day
       0;     

Schedule:Compact,
      OpaqueShade,                                ! Name
      Any Number,                                 ! Type
      Through: 12/31,                             ! Type
      For: AllDays,                               ! All days in year
      Until: 24:00,                               ! All hours in day
       0;     
       
Schedule:Compact,
    Zone Comfort Control Type Sched,              !- Name
    Control Type,                                 !- Schedule Type Limits Name
    Through: 12/31,                               !- Field 1
    For: AllDays,                                 !- Field 2
    Until: 24:00,                                 !- Field 3
    4;                                            !- Field 4

Schedule:Compact,
    Design Days Only,                             !- Name
    Any Number,                                   !- Schedule Type Limits Name
    Through: 12/31,                               !- Field 1
    For: SummerDesignDay WinterDesignDay,         !- Field 2
    Until: 24:00,                                 !- Field 3
    1,                                            !- Field 4
    For: AllOtherDays,                            !- Field 2
    Until: 24:00,                                 !- Field 3
    0;
      
! off heating day
Schedule:Day:Hourly,  0, Any Number,
   0,0,0,0,0,0,0,0,0,0,0,0,0,0,0,0,0,0,0,0,0,0,0,0;

! off cooling day
Schedule:Day:Hourly,  50, Any Number,
   50,50,50,50,50,50,50,50,50,50,50,50,50,50,50,50,50,50,50,50,50,50,50,50;

! used in seasonal schedules
Schedule:Day:Hourly,  Off, Fraction,
   0,0,0,0,0,0,0,0,0,0,0,0,0,0,0,0,0,0,0,0,0,0,0,0;

Schedule:Week:Daily, Off,
   Off,Off,Off,Off,
   Off,Off,Off,Off,
   Off,Off,Off,Off;

! -------------------- Control type schedules (for heating & cooling) ----------------------

Schedule:Day:Hourly, Summer Control Type Day Sch, Control Type,
   4,4,4,4,4,4,4,4,4,4,4,4,4,4,4,4,4,4,4,4,4,4,4,4;

Schedule:Day:Hourly, Winter Control Type Day Sch, Control Type,
   4,4,4,4,4,4,4,4,4,4,4,4,4,4,4,4,4,4,4,4,4,4,4,4;

Schedule:Day:Hourly, Summer Control Type Day Sch - cool, Control Type,
   2,2,2,2,2,2,2,2,2,2,2,2,2,2,2,2,2,2,2,2,2,2,2,2;

Schedule:Day:Hourly, Winter Control Type Day Sch - heat, Control Type,
   1,1,1,1,1,1,1,1,1,1,1,1,1,1,1,1,1,1,1,1,1,1,1,1;

Schedule:Week:Daily, Summer Control Type Week Sch,
   Summer Control Type Day Sch,Summer Control Type Day Sch,Summer Control Type Day Sch,
   Summer Control Type Day Sch,Summer Control Type Day Sch,Summer Control Type Day Sch,
   Summer Control Type Day Sch,Summer Control Type Day Sch,Summer Control Type Day Sch,
   Summer Control Type Day Sch,Summer Control Type Day Sch,Summer Control Type Day Sch;

Schedule:Week:Daily, Winter Control Type Week Sch,
   Winter Control Type Day Sch,Winter Control Type Day Sch,Winter Control Type Day Sch,
   Winter Control Type Day Sch,Winter Control Type Day Sch,Winter Control Type Day Sch,
   Winter Control Type Day Sch,Winter Control Type Day Sch,Winter Control Type Day Sch,
   Winter Control Type Day Sch,Winter Control Type Day Sch,Winter Control Type Day Sch;

Schedule:Week:Daily, Summer Control Type Week Sch - cool,
   Summer Control Type Day Sch - cool,Summer Control Type Day Sch - cool,Summer Control Type Day Sch - cool,
   Summer Control Type Day Sch - cool,Summer Control Type Day Sch - cool,Summer Control Type Day Sch - cool,
   Summer Control Type Day Sch - cool,Summer Control Type Day Sch - cool,Summer Control Type Day Sch - cool,
   Summer Control Type Day Sch - cool,Summer Control Type Day Sch - cool,Summer Control Type Day Sch - cool;

Schedule:Week:Daily, Winter Control Type Week Sch - heat,
   Winter Control Type Day Sch - heat,Winter Control Type Day Sch - heat,Winter Control Type Day Sch - heat,
   Winter Control Type Day Sch - heat,Winter Control Type Day Sch - heat,Winter Control Type Day Sch - heat,
   Winter Control Type Day Sch - heat,Winter Control Type Day Sch - heat,Winter Control Type Day Sch - heat,
   Winter Control Type Day Sch - heat,Winter Control Type Day Sch - heat,Winter Control Type Day Sch - heat;

!Material:InfraredTransparent,
!IRTMaterial; !- Name

!Construction,
!IRTSurface,  !- Name
!IRTMaterial; !- Outside Layer





Material:NoMass, 
LinearBridgingLayer,                  ! Material Name
Rough,                                ! Roughness
0.6267 ,                              ! Resistance {M**2K/W} will give Total Resistance 1
0.0000100 ,                           ! Thermal Absorptance
0.0000000 ,                           ! Solar Absorptance
0.0000000 ;                           ! Visible Absorptance

Construction,
LinearBridgingConstruction,           !- Name
LinearBridgingLayer;                  !- Layer

Schedule:Compact,
TypOperativeTempControlSch,
Temperature,
Through: 31 Dec,
For: SummerDesignDay WinterDesignDay,
Until: 24:00, 0.0,
For: AllOtherDays,
Until: 24:00, 0.5;

Schedule:Compact, 
      OnWinterDesignDay,                          ! Name
      Any Number,                                 
      Through: 12/31,                             
      For: WinterDesignDay,                       ! All days in year
      Until: 24:00, 1,
      For: AllOtherDays,
      Until: 24:00, 0;     

Schedule:Compact, 
      OnSummerDesignDay,                          ! Name
      Any Number,                                 
      Through: 12/31,                             
      For: SummerDesignDay,                       ! All days in year
      Until: 24:00, 1,
      For: AllOtherDays,
      Until: 24:00, 0;     

Material:InfraredTransparent,
IRTMaterial; !- Name

Construction,
IRTSurface,  !- Name
IRTMaterial; !- Outside Layer


! Schedule: On 24/7
Schedule:Compact, 
On 24/7, 
Any Number,
Through: 12/31,
For: AllDays,   
Until: 24:00,   1 ;


! Schedule: Off 24/7
Schedule:Compact,
Off 24/7,
Any Number,
Through: 12/31,
For: AllDays,
Until: 24:00,  0  ;


! Schedule: Default Air Velocity for Comfort Calculations
Schedule:Compact, 
Default Air Velocity for Comfort Calculations, 
Any Number,
Through: 12/31,
For: AllDays,   
Until: 24:00,   0.1370 ;


! Schedule: 0_Baseline Office Lighting Schedule
Schedule:Compact,
0_Baseline Office Lighting Schedule,
Fraction,
Through: 31 Dec,
For: Sunday Monday Tuesday Wednesday Thursday,
Until: 08:00, 0.0666,
Until: 17:00, 1,
Until: 24:00, 0.0666,
For: Friday Saturday,
Until: 24:00, 0,
For: AllOtherDays,
Until: 24:00, 0;


! Schedule: 0_Baseline Office Non Fixed Equipment Schedule
Schedule:Compact,
0_Baseline Office Non Fixed Equipment Schedule,
Fraction,
Through: 31 Dec,
For: Alldays,
Until: 08:00, 0,
Until: 17:00, 1,
Until: 24:00, 0;


! Schedule: 0_Baseline Office Fixed Equipment Schedule
Schedule:Compact,
0_Baseline Office Fixed Equipment Schedule,
Fraction,
Through: 31 Dec,
For: AllDays,
Until: 24:00, 1;


! Schedule: 0_Baseline Office Occupency Schedule
Schedule:Compact,
0_Baseline Office Occupency Schedule,
Fraction,
Through: 31 Dec,
For: AllDays,
Until: 08:00, 0,
Until: 17:00, 1,
Until: 24:00, 0;




WindowMaterial:Glazing,3,                         !- Generic CLEAR 6MM
   SpectralAverage,                               !- Optical data type {SpectralAverage or Spectral}
   ,                                              !- Name of spectral data set when Optical Data Type = Spectral
   .006,                                          !- Thickness {m}
   .775,                                          !- Solar transmittance at normal incidence
   .071,                                          !- Solar reflectance at normal incidence: front side
   .071,                                          !- Solar reflectance at normal incidence: back side
   .881,                                          !- Visible transmittance at normal incidence
   .080,                                          !- Visible reflectance at normal incidence: front side
   .080,                                          !- Visible reflectance at normal incidence: back side
   .0,                                            !- IR transmittance at normal incidence
   .84,                                           !- IR emissivity: front side
   .84,                                           !- IR emissivity: back side
   .9,                                            !- Conductivity {W/m-K}
   1;                                             !- Dirt Correction Factor for Solar and Visible Transmittance
! _1045 Ceramic porcelain_12.1- thickness 0.02
Material, _1045 Ceramic porcelain_12.1_.02,
   Smooth,                                        !- Roughness
   .02,                                           !- Thickness {m}
   1.3,                                           !- Conductivity {w/m-K}
   2300,                                          !- Density {kg/m3}
   840,                                           !- Specific Heat {J/kg-K}
   .9,                                            !- Thermal Emittance
   .4,                                            !- Solar Absorptance
   .4;                                            !- Visible Absorptance

! _1045_Cemented Plaster_2.2- thickness 0.02
Material, _1045_Cemented Plaster_2.2_.02,
   Rough,                                         !- Roughness
   .02,                                           !- Thickness {m}
   1,                                             !- Conductivity {w/m-K}
   1800,                                          !- Density {kg/m3}
   1000,                                          !- Specific Heat {J/kg-K}
   .9,                                            !- Thermal Emittance
   .4,                                            !- Solar Absorptance
   .4;                                            !- Visible Absorptance

! _1045 Sand and gravel_10.1- thickness 0.1
Material, _1045 Sand and gravel_10.1_.1,
   Rough,                                         !- Roughness
   .1,                                            !- Thickness {m}
   2,                                             !- Conductivity {w/m-K}
   1950,                                          !- Density {kg/m3}
   1045,                                          !- Specific Heat {J/kg-K}
   .9,                                            !- Thermal Emittance
   .4,                                            !- Solar Absorptance
   .4;                                            !- Visible Absorptance

! _1045_RegularConcrete_1.1.1- thickness 0.2
Material, _1045_RegularConcrete_1.1.1_.2,
   MediumRough,                                   !- Roughness
   .2,                                            !- Thickness {m}
   2,                                             !- Conductivity {w/m-K}
   2400,                                          !- Density {kg/m3}
   1000,                                          !- Specific Heat {J/kg-K}
   .9,                                            !- Thermal Emittance
   .4,                                            !- Solar Absorptance
   .4;                                            !- Visible Absorptance

! _1045_IntTiah_Cement Lime Plaster_2.1- thickness 0.02
Material, _1045_IntTiah_Cement Lime Plaster_2.1_.02,
   Smooth,                                        !- Roughness
   .02,                                           !- Thickness {m}
   .8,                                            !- Conductivity {w/m-K}
   1600,                                          !- Density {kg/m3}
   1000,                                          !- Specific Heat {J/kg-K}
   .9,                                            !- Thermal Emittance
   .4,                                            !- Solar Absorptance
   .4;                                            !- Visible Absorptance

! _1045 Gypsum Board_3.3- thickness 0.0125
Material, _1045 Gypsum Board_3.3_.0125,
   Smooth,                                        !- Roughness
   .0125,                                         !- Thickness {m}
   .25,                                           !- Conductivity {w/m-K}
   800,                                           !- Density {kg/m3}
   1000,                                          !- Specific Heat {J/kg-K}
   .9,                                            !- Thermal Emittance
   .4,                                            !- Solar Absorptance
   .4;                                            !- Visible Absorptance

! _1045 Mineral Wool 12_14.6- thickness 0.025
Material, _1045 Mineral Wool 12_14.6_.025,
   Rough,                                         !- Roughness
   .025,                                          !- Thickness {m}
   .036,                                          !- Conductivity {w/m-K}
   12,                                            !- Density {kg/m3}
   1030,                                          !- Specific Heat {J/kg-K}
   .9,                                            !- Thermal Emittance
   .4,                                            !- Solar Absorptance
   .4;                                            !- Visible Absorptance

! _1045_IntTiah_Cement Lime Plaster_2.1- thickness 0.015
Material, _1045_IntTiah_Cement Lime Plaster_2.1_.015,
   Smooth,                                        !- Roughness
   .015,                                          !- Thickness {m}
   .8,                                            !- Conductivity {w/m-K}
   1600,                                          !- Density {kg/m3}
   1000,                                          !- Specific Heat {J/kg-K}
   .9,                                            !- Thermal Emittance
   .4,                                            !- Solar Absorptance
   .4;                                            !- Visible Absorptance

! _1045 Regular Glass_6.1- thickness 0.006
Material, _1045 Regular Glass_6.1_.006,
   VerySmooth,                                    !- Roughness
   .006,                                          !- Thickness {m}
   1,                                             !- Conductivity {w/m-K}
   2500,                                          !- Density {kg/m3}
   750,                                           !- Specific Heat {J/kg-K}
   .9,                                            !- Thermal Emittance
   .6,                                            !- Solar Absorptance
   .6;                                            !- Visible Absorptance

! _1045 Mineral Wool 12_14.6- thickness 0.05
Material, _1045 Mineral Wool 12_14.6_.05,
   Rough,                                         !- Roughness
   .05,                                           !- Thickness {m}
   .036,                                          !- Conductivity {w/m-K}
   12,                                            !- Density {kg/m3}
   1030,                                          !- Specific Heat {J/kg-K}
   .9,                                            !- Thermal Emittance
   .4,                                            !- Solar Absorptance
   .4;                                            !- Visible Absorptance

! _1045 Expanded Polystyrene EPS 30_14.1- thickness 0.03
Material, _1045 Expanded Polystyrene EPS 30_14.1_.03,
   Rough,                                         !- Roughness
   .03,                                           !- Thickness {m}
   .034,                                          !- Conductivity {w/m-K}
   30,                                            !- Density {kg/m3}
   1450,                                          !- Specific Heat {J/kg-K}
   .9,                                            !- Thermal Emittance
   .4,                                            !- Solar Absorptance
   .4;                                            !- Visible Absorptance

! _1045 Ceramic porcelain_12.1- thickness 0.01
Material, _1045 Ceramic porcelain_12.1_.01,
   Smooth,                                        !- Roughness
   .01,                                           !- Thickness {m}
   1.3,                                           !- Conductivity {w/m-K}
   2300,                                          !- Density {kg/m3}
   840,                                           !- Specific Heat {J/kg-K}
   .9,                                            !- Thermal Emittance
   .4,                                            !- Solar Absorptance
   .4;                                            !- Visible Absorptance

! _1045 Expanded Polystyrene EPS 30_14.1- thickness 0.02
Material, _1045 Expanded Polystyrene EPS 30_14.1_.02,
   Rough,                                         !- Roughness
   .02,                                           !- Thickness {m}
   .034,                                          !- Conductivity {w/m-K}
   30,                                            !- Density {kg/m3}
   1450,                                          !- Specific Heat {J/kg-K}
   .9,                                            !- Thermal Emittance
   .4,                                            !- Solar Absorptance
   .4;                                            !- Visible Absorptance

! _Bitumen- thickness 0.005
Material, _Bitumen_.005,
   Rough,                                         !- Roughness
   .005,                                          !- Thickness {m}
   .17,                                           !- Conductivity {w/m-K}
   1200,                                          !- Density {kg/m3}
   1660,                                          !- Specific Heat {J/kg-K}
   .9,                                            !- Thermal Emittance
   .4,                                            !- Solar Absorptance
   .4;                                            !- Visible Absorptance

! _1045 Light Concrete Coarse Aggregate NonQuartsSand 1200_1.2.1- thickness 0.05
Material, _1045 Light Concrete Coarse Aggregate NonQuartsSand 1200_1.2.1_.05,
   MediumRough,                                   !- Roughness
   .05,                                           !- Thickness {m}
   .62,                                           !- Conductivity {w/m-K}
   1200,                                          !- Density {kg/m3}
   1000,                                          !- Specific Heat {J/kg-K}
   .9,                                            !- Thermal Emittance
   .4,                                            !- Solar Absorptance
   .4;                                            !- Visible Absorptance

! _1045 Expanded Polystyrene EPS 30_14.1- thickness 0.05
Material, _1045 Expanded Polystyrene EPS 30_14.1_.05,
   Rough,                                         !- Roughness
   .05,                                           !- Thickness {m}
   .034,                                          !- Conductivity {w/m-K}
   30,                                            !- Density {kg/m3}
   1450,                                          !- Specific Heat {J/kg-K}
   .9,                                            !- Thermal Emittance
   .4,                                            !- Solar Absorptance
   .4;                                            !- Visible Absorptance


! 0_IntFloor
Construction, 0_IntFloor,
   _1045 Ceramic porcelain_12.1_.02,              !- .02m
   _1045_Cemented Plaster_2.2_.02,                !- .02m
   _1045 Sand and gravel_10.1_.1,                 !- .1m
   _1045_RegularConcrete_1.1.1_.2,                !- .2m
   _1045_IntTiah_Cement Lime Plaster_2.1_.02;     !- .02m

! <Previous reversed>
Construction, 0_IntFloor_Rev,
   _1045_IntTiah_Cement Lime Plaster_2.1_.02,     !- .02m
   _1045_RegularConcrete_1.1.1_.2,                !- .2m
   _1045 Sand and gravel_10.1_.1,                 !- .1m
   _1045_Cemented Plaster_2.2_.02,                !- .02m
   _1045 Ceramic porcelain_12.1_.02;              !- .02m

! 0_IntFloor_Reversed
Construction, 0_IntFloor_Reversed,
   _1045_IntTiah_Cement Lime Plaster_2.1_.02,     !- .02m