! File generated by DesignBuilder - 7.0.2.006 12/02/2024 - 12:15:34
! Source file: C:\Users\shaked1\shaked Dropbox\shaked Sustainability\416_5282 Be-Rate\2_5282 baseline model - BERate\model by energy+ 9.4\Residential\2017\Residential - B\Baseline Residential - B.dsb

! Geometry convention template : ASHRAE 90.1
! Zone geometry and surface areas : 2-Outer
! Zone volume calculation method : 2-Outer
! Zone floor area calculation method : 2-Outer
! Window to wall ratio method : 2-Outer

Version, 9.4.0.002;                               !- Version Identifier

RunPeriod,                                        !- Annual simulation
   Baseline Residential - B (01-01:31-12),        !- Location
   1,1, 2002,                                     !- Start Month , Day
   12,31, 2002,                                   !- End Month , Day
   ,                                              !- Day of Week for Start Day
   No,                                            !- Use weather file holidays/special day periods
   Yes,                                           !- Use WeatherFile DaylightSavingPeriod - will use daylight saving time in weather file
   Yes,                                           !- Apply Weekend Holiday Rule - will reassign weekend holidays to Monday
   Yes,                                           !- use weather file rain indicators
   Yes,                                           !- use weather file snow indicators
   No;                                            !- Treat Weather as Actual

! Hourly weather file: C:\ProgramData\DesignBuilder\Weather Data\ISR_BEER SHEVA CITY_MSI.epw

Site:Location,Baseline Residential - B (01-01:31-12)  (01-01:31-12),  !- Location Name
   31.23,                                         !- Latitude
   34.78,                                         !- Longitude
   2,                                             !- Time Zone
   280;                                           !- Elevation {m}

Site:GroundTemperature:BuildingSurface,           !- Annual ground temperatures - 1 value for each month
   18,                                            !- Jan ground temperature
   18,                                            !- Feb ground temperature
   18,                                            !- Mar ground temperature
   18,                                            !- Apr ground temperature
   18,                                            !- May ground temperature
   18,                                            !- Jun ground temperature
   18,                                            !- Jul ground temperature
   18,                                            !- Aug ground temperature
   18,                                            !- Sep ground temperature
   18,                                            !- Oct ground temperature
   18,                                            !- Nov ground temperature
   18;                                            !- Dec ground temperature

Site:GroundTemperature:Deep,                      !- Annual ground temperatures - 1 value for each month
   14,                                            !- Jan deep ground temperature
   14,                                            !- Feb deep ground temperature
   14,                                            !- Mar deep ground temperature
   14,                                            !- Apr deep ground temperature
   14,                                            !- May deep ground temperature
   14,                                            !- Jun deep ground temperature
   14,                                            !- Jul deep ground temperature
   14,                                            !- Aug deep ground temperature
   14,                                            !- Sep deep ground temperature
   14,                                            !- Oct deep ground temperature
   14,                                            !- Nov deep ground temperature
   14;                                            !- Dec deep ground temperature

Site:GroundTemperature:Shallow,                   !- Annual ground temperatures - 1 value for each month
   14,                                            !- Jan shallow ground temperature
   14,                                            !- Feb shallow ground temperature
   14,                                            !- Mar shallow ground temperature
   14,                                            !- Apr shallow ground temperature
   14,                                            !- May shallow ground temperature
   14,                                            !- Jun shallow ground temperature
   14,                                            !- Jul shallow ground temperature
   14,                                            !- Aug shallow ground temperature
   14,                                            !- Sep shallow ground temperature
   14,                                            !- Oct shallow ground temperature
   14,                                            !- Nov shallow ground temperature
   14;                                            !- Dec shallow ground temperature

Site:GroundTemperature:FCfactorMethod,            !- Annual ground temperatures - 1 value for each month
   18.44,                                         !- January FCfactorMethod ground temperature {C}
   15.24,                                         !- Februry FCfactorMethod ground temperature {C}
   13.28,                                         !- March FCfactorMethod ground temperature {C}
   12.69,                                         !- April FCfactorMethod ground temperature {C}
   13.86,                                         !- May FCfactorMethod ground temperature {C}
   16.52,                                         !- June FCfactorMethod ground temperature {C}
   19.81,                                         !- July FCfactorMethod ground temperature {C}
   23.04,                                         !- August FCfactorMethod ground temperature {C}
   25.2,                                          !- September FCfactorMethod ground temperature {C}
   25.71,                                         !- October FCfactorMethod ground temperature {C}
   24.46,                                         !- November FCfactorMethod ground temperature {C}
   21.85;                                         !- December FCfactorMethod ground temperature {C}

Site:GroundReflectance,                           !- Annual ground reflectances - 1 value for each month
   0.2,                                           !- Jan ground reflectance
   0.2,                                           !- Feb ground reflectance
   0.2,                                           !- Mar ground reflectance
   0.2,                                           !- Apr ground reflectance
   0.2,                                           !- May ground reflectance
   0.2,                                           !- Jun ground reflectance
   0.2,                                           !- Jul ground reflectance
   0.2,                                           !- Aug ground reflectance
   0.2,                                           !- Sep ground reflectance
   0.2,                                           !- Oct ground reflectance
   0.2,                                           !- Nov ground reflectance
   0.2;                                           !- Dec ground reflectance

Site:GroundReflectance:SnowModifier,
   2.0,                                           !- Ground Reflected Solar Modifier
   2.0;                                           !- Daylighting Ground Reflected Solar Modifier

SimulationControl,
   No,                                            !- Do the zone sizing calculation
   No,                                            !- Do the system sizing calculation
   No,                                            !- Do the plant sizing calculation
   No,                                            !- Do the design day calculation
   Yes;                                           !- Do the weather file calculation


Timestep, 6;                                      !- Timesteps/hour

ConvergenceLimits,
   1,                                             !- Minimum System Time Step (0=same as zone time step)
   25;                                            !- Maximum HVAC Iterations (1=min, 20=default)

ScheduleTypeLimits, Any Number;                         ! Not limited
ScheduleTypeLimits, Fraction,     0.0, 1.0, CONTINUOUS;
ScheduleTypeLimits, Temperature,  -60, 200, CONTINUOUS;
ScheduleTypeLimits, Control Type,   0,   4, DISCRETE;
ScheduleTypeLimits, On/Off,         0,   1, DISCRETE;

Schedule:Compact, 
      On,                                         ! Name
      Any Number,                                 ! Type
      Through: 12/31,                             ! Type
      For: AllDays,                               ! All days in year
      Until: 24:00,                               ! All hours in day
       1;     

Schedule:Compact, 
      Off,                                        ! Name
      Any Number,                                 ! Type
      Through: 12/31,                             ! Type
      For: AllDays,                               ! All days in year
      Until: 24:00,                               ! All hours in day
       0;     

Schedule:Compact, 
      Work efficiency,                            ! Name
      Any Number,                                 ! Type
      Through: 12/31,                             ! Type
      For: AllDays,                               ! All days in year
      Until: 24:00,                               ! All hours in day
       0;     

Schedule:Compact,
      OpaqueShade,                                ! Name
      Any Number,                                 ! Type
      Through: 12/31,                             ! Type
      For: AllDays,                               ! All days in year
      Until: 24:00,                               ! All hours in day
       0;     
       
Schedule:Compact,
    Zone Comfort Control Type Sched,              !- Name
    Control Type,                                 !- Schedule Type Limits Name
    Through: 12/31,                               !- Field 1
    For: AllDays,                                 !- Field 2
    Until: 24:00,                                 !- Field 3
    4;                                            !- Field 4

Schedule:Compact,
    Design Days Only,                             !- Name
    Any Number,                                   !- Schedule Type Limits Name
    Through: 12/31,                               !- Field 1
    For: SummerDesignDay WinterDesignDay,         !- Field 2
    Until: 24:00,                                 !- Field 3
    1,                                            !- Field 4
    For: AllOtherDays,                            !- Field 2
    Until: 24:00,                                 !- Field 3
    0;
      
! off heating day
Schedule:Day:Hourly,  0, Any Number,
   0,0,0,0,0,0,0,0,0,0,0,0,0,0,0,0,0,0,0,0,0,0,0,0;

! off cooling day
Schedule:Day:Hourly,  50, Any Number,
   50,50,50,50,50,50,50,50,50,50,50,50,50,50,50,50,50,50,50,50,50,50,50,50;

! used in seasonal schedules
Schedule:Day:Hourly,  Off, Fraction,
   0,0,0,0,0,0,0,0,0,0,0,0,0,0,0,0,0,0,0,0,0,0,0,0;

Schedule:Week:Daily, Off,
   Off,Off,Off,Off,
   Off,Off,Off,Off,
   Off,Off,Off,Off;

! -------------------- Control type schedules (for heating & cooling) ----------------------

Schedule:Day:Hourly, Summer Control Type Day Sch, Control Type,
   4,4,4,4,4,4,4,4,4,4,4,4,4,4,4,4,4,4,4,4,4,4,4,4;

Schedule:Day:Hourly, Winter Control Type Day Sch, Control Type,
   4,4,4,4,4,4,4,4,4,4,4,4,4,4,4,4,4,4,4,4,4,4,4,4;

Schedule:Day:Hourly, Summer Control Type Day Sch - cool, Control Type,
   2,2,2,2,2,2,2,2,2,2,2,2,2,2,2,2,2,2,2,2,2,2,2,2;

Schedule:Day:Hourly, Winter Control Type Day Sch - heat, Control Type,
   1,1,1,1,1,1,1,1,1,1,1,1,1,1,1,1,1,1,1,1,1,1,1,1;

Schedule:Week:Daily, Summer Control Type Week Sch,
   Summer Control Type Day Sch,Summer Control Type Day Sch,Summer Control Type Day Sch,
   Summer Control Type Day Sch,Summer Control Type Day Sch,Summer Control Type Day Sch,
   Summer Control Type Day Sch,Summer Control Type Day Sch,Summer Control Type Day Sch,
   Summer Control Type Day Sch,Summer Control Type Day Sch,Summer Control Type Day Sch;

Schedule:Week:Daily, Winter Control Type Week Sch,
   Winter Control Type Day Sch,Winter Control Type Day Sch,Winter Control Type Day Sch,
   Winter Control Type Day Sch,Winter Control Type Day Sch,Winter Control Type Day Sch,
   Winter Control Type Day Sch,Winter Control Type Day Sch,Winter Control Type Day Sch,
   Winter Control Type Day Sch,Winter Control Type Day Sch,Winter Control Type Day Sch;

Schedule:Week:Daily, Summer Control Type Week Sch - cool,
   Summer Control Type Day Sch - cool,Summer Control Type Day Sch - cool,Summer Control Type Day Sch - cool,
   Summer Control Type Day Sch - cool,Summer Control Type Day Sch - cool,Summer Control Type Day Sch - cool,
   Summer Control Type Day Sch - cool,Summer Control Type Day Sch - cool,Summer Control Type Day Sch - cool,
   Summer Control Type Day Sch - cool,Summer Control Type Day Sch - cool,Summer Control Type Day Sch - cool;

Schedule:Week:Daily, Winter Control Type Week Sch - heat,
   Winter Control Type Day Sch - heat,Winter Control Type Day Sch - heat,Winter Control Type Day Sch - heat,
   Winter Control Type Day Sch - heat,Winter Control Type Day Sch - heat,Winter Control Type Day Sch - heat,
   Winter Control Type Day Sch - heat,Winter Control Type Day Sch - heat,Winter Control Type Day Sch - heat,
   Winter Control Type Day Sch - heat,Winter Control Type Day Sch - heat,Winter Control Type Day Sch - heat;

!Material:InfraredTransparent,
!IRTMaterial; !- Name

!Construction,
!IRTSurface,  !- Name
!IRTMaterial; !- Outside Layer





Material:NoMass, 
LinearBridgingLayer,                  ! Material Name
Rough,                                ! Roughness
0.6267 ,                              ! Resistance {M**2K/W} will give Total Resistance 1
0.0100000 ,                           ! Thermal Absorptance
0.0100000 ,                           ! Solar Absorptance
0.0100000 ;                           ! Visible Absorptance

Construction,
LinearBridgingConstruction,           !- Name
LinearBridgingLayer;                  !- Layer

Schedule:Compact,
TypOperativeTempControlSch,
Temperature,
Through: 31 Dec,
For: SummerDesignDay WinterDesignDay,
Until: 24:00, 0.0,
For: AllOtherDays,
Until: 24:00, 0.5;

Schedule:Compact, 
      OnWinterDesignDay,                          ! Name
      Any Number,                                 
      Through: 12/31,                             
      For: WinterDesignDay,                       ! All days in year
      Until: 24:00, 1,
      For: AllOtherDays,
      Until: 24:00, 0;     

Schedule:Compact, 
      OnSummerDesignDay,                          ! Name
      Any Number,                                 
      Through: 12/31,                             
      For: SummerDesignDay,                       ! All days in year
      Until: 24:00, 1,
      For: AllOtherDays,
      Until: 24:00, 0;     

Material:InfraredTransparent,
IRTMaterial; !- Name

Construction,
IRTSurface,  !- Name
IRTMaterial; !- Outside Layer


! Schedule: On 24/7
Schedule:Compact, 
On 24/7, 
Any Number,
Through: 12/31,
For: AllDays,   
Until: 24:00,   1 ;


! Schedule: Off 24/7
Schedule:Compact,
Off 24/7,
Any Number,
Through: 12/31,
For: AllDays,
Until: 24:00,  0  ;


! Schedule: Slat angle control
Schedule:Compact, 
Slat angle control, 
Any Number,
Through: 12/31,
For: AllDays,   
Until: 24:00,   45 ;


! Schedule: Default Air Velocity for Comfort Calculations
Schedule:Compact, 
Default Air Velocity for Comfort Calculations, 
Any Number,
Through: 12/31,
For: AllDays,   
Until: 24:00,   0.1370 ;


! Schedule: Baseline Residential Lighting Schedule
Schedule:Compact,
Baseline Residential Lighting Schedule,
Fraction,
Through: 31 Dec,
For: AllDays,
Until: 17:00, 0,
Until: 24:00, 1;


! Schedule: Baseline Residential Occupancy Schedule
Schedule:Compact,
Baseline Residential Occupancy Schedule,
Fraction,
Through: 31 Dec,
For: Alldays,
Until: 08:00, 0.64,
Until: 16:00, 0,
Until: 24:00, 1;


! Schedule: Baseline Residential Equipment Schedule
Schedule:Compact,
Baseline Residential Equipment Schedule,
Fraction,
Through: 31 Dec,
For: AllDays,
Until: 24:00, 1;


! Schedule: Baseline Residential Non Fixed Equipment Schedule
Schedule:Compact,
Baseline Residential Non Fixed Equipment Schedule,
Fraction,
Through: 31 Dec,
For: AllDays,
Until: 16:00, 0,
Until: 24:00, 1;


! Schedule: Baseline Residential Exterior Shading Schedule - A/B
Schedule:Compact,
Baseline Residential Exterior Shading Schedule - A/B,
Fraction,
Through: 31 March,
For: AllDays,
Until: 24:00, 0,
Through: 30 November,
For: AllDays,
Until: 24:00, 1,
Through: 31 December,
For: AllDays,
Until: 24:00, 0;




WindowMaterial:Shade,30000,                       !- baseline residential shading template
   0,                                             !- Solar transmittance
   .5,                                            !- Solar reflectance
   0,                                             !- Visible transmittance
   .5,                                            !- Visible reflectance
   .9,                                            !- IR Thermal emissivity
   0,                                             !- IR Thermal transmittance
   .005,                                          !- Thickness {m}
   .1,                                            !- Conductivity {W/m-K}
   .05,                                           !- Shade-to-glass distance
   0,                                             !- Shade top opening multiplier
   0,                                             !- Shade bottom opening multiplier
   0,                                             !- Shade left-side opening multiplier
   0,                                             !- Shade right-side opening multiplier
   0;                                             !- Air-flow permeability
! polystiran - 1045- thickness 0.02
Material, polystiran - 1045_.02,
   Rough,                                         !- Roughness
   .02,                                           !- Thickness {m}
   .034,                                          !- Conductivity {w/m-K}
   30,                                            !- Density {kg/m3}
   1450,                                          !- Specific Heat {J/kg-K}
   .9,                                            !- Thermal Emittance
   .7,                                            !- Solar Absorptance
   .7;                                            !- Visible Absorptance

! light Concrete - 1045- thickness 0.2
Material, light Concrete - 1045_.2,
   Rough,                                         !- Roughness
   .2,                                            !- Thickness {m}
   1,                                             !- Conductivity {w/m-K}
   1600,                                          !- Density {kg/m3}
   1000,                                          !- Specific Heat {J/kg-K}
   .9,                                            !- Thermal Emittance
   .6,                                            !- Solar Absorptance
   .6;                                            !- Visible Absorptance

! Sand - 1045- thickness 0.1
Material, Sand - 1045_.1,
   Rough,                                         !- Roughness
   .1,                                            !- Thickness {m}
   2,                                             !- Conductivity {w/m-K}
   2200,                                          !- Density {kg/m3}
   1180,                                          !- Specific Heat {J/kg-K}
   .9,                                            !- Thermal Emittance
   .6,                                            !- Solar Absorptance
   .6;                                            !- Visible Absorptance

! Plaster - 1045- thickness 0.02
Material, Plaster - 1045_.02,
   Rough,                                         !- Roughness
   .02,                                           !- Thickness {m}
   1,                                             !- Conductivity {w/m-K}
   1800,                                          !- Density {kg/m3}
   1000,                                          !- Specific Heat {J/kg-K}
   .9,                                            !- Thermal Emittance
   .5,                                            !- Solar Absorptance
   .5;                                            !- Visible Absorptance

! Ceramic - 1045- thickness 0.015
Material, Ceramic - 1045_.015,
   Rough,                                         !- Roughness
   .015,                                          !- Thickness {m}
   1.3,                                           !- Conductivity {w/m-K}
   2300,                                          !- Density {kg/m3}
   840,                                           !- Specific Heat {J/kg-K}
   .9,                                            !- Thermal Emittance
   .3,                                            !- Solar Absorptance
   .7;                                            !- Visible Absorptance

! Ceramic - 1045- thickness 0.02
Material, Ceramic - 1045_.02,
   Rough,                                         !- Roughness
   .02,                                           !- Thickness {m}
   1.3,                                           !- Conductivity {w/m-K}
   2300,                                          !- Density {kg/m3}
   840,                                           !- Specific Heat {J/kg-K}
   .9,                                            !- Thermal Emittance
   .3,                                            !- Solar Absorptance
   .7;                                            !- Visible Absorptance

! Concrete - 1045- thickness 0.15
Material, Concrete - 1045_.15,
   Rough,                                         !- Roughness
   .15,                                           !- Thickness {m}
   2,                                             !- Conductivity {w/m-K}
   2400,                                          !- Density {kg/m3}
   1000,                                          !- Specific Heat {J/kg-K}
   .9,                                            !- Thermal Emittance
   .6,                                            !- Solar Absorptance
   .6;                                            !- Visible Absorptance

! Gypsum Board- thickness 0.02
Material, Gypsum Board_.02,
   Rough,                                         !- Roughness
   .02,                                           !- Thickness {m}
   .25,                                           !- Conductivity {w/m-K}
   800,                                           !- Density {kg/m3}
   1000,                                          !- Specific Heat {J/kg-K}
   .9,                                            !- Thermal Emittance
   .6,                                            !- Solar Absorptance
   .6;                                            !- Visible Absorptance

! Concrete - 1045 - ext wall solarA= 0.7- thickness 0.2
Material, Concrete - 1045 - ext wall solarA= 0.7_.2,
   Rough,                                         !- Roughness
   .2,                                            !- Thickness {m}
   2,                                             !- Conductivity {w/m-K}
   2400,                                          !- Density {kg/m3}
   1000,                                          !- Specific Heat {J/kg-K}
   .9,                                            !- Thermal Emittance
   .7,                                            !- Solar Absorptance
   .7;                                            !- Visible Absorptance

! Baseline Residential - Interior Insulation- thickness 0.02
Material, Baseline Residential - Interior Insulation_.02,
   Rough,                                         !- Roughness
   .02,                                           !- Thickness {m}
   .04,                                           !- Conductivity {w/m-K}
   12,                                            !- Density {kg/m3}
   840,                                           !- Specific Heat {J/kg-K}
   .9,                                            !- Thermal Emittance
   .7,                                            !- Solar Absorptance
   .7;                                            !- Visible Absorptance

! Plaster - 1045- thickness 0.015
Material, Plaster - 1045_.015,
   Rough,                                         !- Roughness
   .015,                                          !- Thickness {m}
   1,                                             !- Conductivity {w/m-K}
   1800,                                          !- Density {kg/m3}
   1000,                                          !- Specific Heat {J/kg-K}
   .9,                                            !- Thermal Emittance
   .5,                                            !- Solar Absorptance
   .5;                                            !- Visible Absorptance

! Concrete Block- thickness 0.1
Material, Concrete Block_.1,
   Rough,                                         !- Roughness
   .1,                                            !- Thickness {m}
   .5,                                            !- Conductivity {w/m-K}
   1200,                                          !- Density {kg/m3}
   1000,                                          !- Specific Heat {J/kg-K}
   .9,                                            !- Thermal Emittance
   .6,                                            !- Solar Absorptance
   .6;                                            !- Visible Absorptance

! light Concrete - 1045 - ext roof solarA=0.45- thickness 0.05
Material, light Concrete - 1045 - ext roof solarA=0.45_.05,
   Rough,                                         !- Roughness
   .05,                                           !- Thickness {m}
   1,                                             !- Conductivity {w/m-K}
   1600,                                          !- Density {kg/m3}
   1000,                                          !- Specific Heat {J/kg-K}
   .9,                                            !- Thermal Emittance
   .45,                                           !- Solar Absorptance
   .45;                                           !- Visible Absorptance

! polystiran - 1045- thickness 0.023
Material, polystiran - 1045_.023,
   Rough,                                         !- Roughness
   .023,                                          !- Thickness {m}
   .034,                                          !- Conductivity {w/m-K}
   30,                                            !- Density {kg/m3}
   1450,                                          !- Specific Heat {J/kg-K}
   .9,                                            !- Thermal Emittance
   .7,                                            !- Solar Absorptance
   .7;                                            !- Visible Absorptance

! Concrete - 1045- thickness 0.14
Material, Concrete - 1045_.14,
   Rough,                                         !- Roughness
   .14,                                           !- Thickness {m}
   2,                                             !- Conductivity {w/m-K}
   2400,                                          !- Density {kg/m3}
   1000,                                          !- Specific Heat {J/kg-K}
   .9,                                            !- Thermal Emittance
   .6,                                            !- Solar Absorptance
   .6;                                            !- Visible Absorptance

! polystiran - 1045- thickness 0.0156
Material, polystiran - 1045_.0156,
   Rough,                                         !- Roughness
   .0156,                                         !- Thickness {m}
   .034,                                          !- Conductivity {w/m-K}
   30,                                            !- Density {kg/m3}
   1450,                                          !- Specific Heat {J/kg-K}
   .9,                                            !- Thermal Emittance
   .7,                                            !- Solar Absorptance
   .7;                                            !- Visible Absorptance

! Concrete - 1045- thickness 0.2
Material, Concrete - 1045_.2,
   Rough,                                         !- Roughness
   .2,                                            !- Thickness {m}
   2,                                             !- Conductivity {w/m-K}
   2400,                                          !- Density {kg/m3}
   1000,                                          !- Specific Heat {J/kg-K}
   .9,                                            !- Thermal Emittance
   .6,                                            !- Solar Absorptance
   .6;                                            !- Visible Absorptance

! polystiran - 1045- thickness 0.0073
Material, polystiran - 1045_.0073,
   Rough,                                         !- Roughness
   .0073,                                         !- Thickness {m}
   .034,                                          !- Conductivity {w/m-K}